*****************************************************************************
*  Generic 0.25um Process
*****************************************************************************

.MODEL NMOS NMOS ( LEVEL = 2
* Electrical Properties
+KP     = 178e-6		
+VTO    = 0.3703728
+GAMMA  = 0.029
+PHI    = 0.279
+LAMBDA = 0.05     
* Physical Parameters (these are overriden by the electrical parameters but are included for reference)
+UO      = 284.0529492		
+TOX     = 5.6E-9
+NSUB    = 1e15
+LD      = 0.0025e-6
* Parasitic Parameters (These model the capacitance of the transistor itself)
+PB      = 0.99          	
+CJ      = 1.698946E-3  
+MJ      = 0.450283     
+CJSW    = 3.872151E-10 
+MJSW    = 0.2881135    
+CGBO    = 5E-10        
+CGDO    = 4.65E-10     
+CGSO    = 4.65E-10     )


.MODEL PMOS PMOS ( LEVEL = 2
* Electrical Properties
+KP     = 62.7e-6		
+VTO    = -0.4935548
+GAMMA  = 0.029
+PHI    = 0.279
+LAMBDA = 0.05     
* Physical Parameters, these are overriden by the electrical parameters but are included for refernce
+UO      = 100
+TOX     = 5.6E-9
+NSUB    = 1e15
+LD      = 0.0025e-6
* Parasitic Parameters (These model the capacitance of the transistor itself)
+PB      = 0.9771691         	
+CJ      = 1.857995E-3  
+MJ      = 0.4686434    
+CJSW    = 3.426642E-10 
+MJSW    = 0.3314778    
+CGBO    = 5E-10        
+CGDO    = 5.59E-10     
+CGSO    = 5.59E-10     )




.END

